[Format]      =  4.0
[Frequency]   =  0
[Precision]   =  1e-008
[MinAngle]    =  30
[DoSmartMesh] =  1
[Depth]       =  1
[LengthUnits] =  millimeters
[ProblemType] =  planar
[Coordinates] =  cartesian
[ACSolver]    =  0
[PrevType]    =  0
[PrevSoln]    =  ""
[Comment]     =  "Add comments here."
[PointProps]   = 0
[BdryProps]   = 1
  <BeginBdry>
    <BdryName> = "A1"
    <BdryType> = 0
    <A_0> = 0
    <A_1> = 0
    <A_2> = 0
    <Phi> = 0
    <c0> = 0
    <c0i> = 0
    <c1> = 0
    <c1i> = 0
    <Mu_ssd> = 0
    <Sigma_ssd> = 0
    <innerangle> = 0
    <outerangle> = 0
  <EndBdry>
[BlockProps]  = 3
  <BeginBlock>
    <BlockName> = "Air"
    <Mu_x> = 1
    <Mu_y> = 1
    <H_c> = 0
    <H_cAngle> = 0
    <J_re> = 0
    <J_im> = 0
    <Sigma> = 0
    <d_lam> = 0
    <Phi_h> = 0
    <Phi_hx> = 0
    <Phi_hy> = 0
    <LamType> = 0
    <LamFill> = 1
    <NStrands> = 0
    <WireD> = 0
    <BHPoints> = 0
  <EndBlock>
  <BeginBlock>
    <BlockName> = "N42"
    <Mu_x> = 1.05
    <Mu_y> = 1.05
    <H_c> = 994529
    <H_cAngle> = 0
    <J_re> = 0
    <J_im> = 0
    <Sigma> = 0.66700000000000004
    <d_lam> = 0
    <Phi_h> = 0
    <Phi_hx> = 0
    <Phi_hy> = 0
    <LamType> = 0
    <LamFill> = 1
    <NStrands> = 0
    <WireD> = 0
    <BHPoints> = 0
  <EndBlock>
  <BeginBlock>
    <BlockName> = "M-36 Steel"
    <Mu_x> = 1616
    <Mu_y> = 1616
    <H_c> = 0
    <H_cAngle> = 0
    <J_re> = 0
    <J_im> = 0
    <Sigma> = 2
    <d_lam> = 0.63500000000000001
    <Phi_h> = 0
    <Phi_hx> = 0
    <Phi_hy> = 0
    <LamType> = 0
    <LamFill> = 0.97999999999999998
    <NStrands> = 0
    <WireD> = 0
    <BHPoints> = 47
      0	0
      0.050000000000000003	19.398586000000002
      0.10000000000000001	29.611086
      0.14999999999999999	36.311286000000003
      0.20000000000000001	41.398969999999998
      0.25	45.654680999999997
      0.29999999999999999	49.463585000000002
      0.34999999999999998	53.042856999999998
      0.40000000000000002	56.529325
      0.45000000000000001	60.018492000000002
      0.5	63.584023999999999
      0.55000000000000004	67.288555000000002
      0.59999999999999998	71.190393999999998
      0.65000000000000002	75.348315999999997
      0.69999999999999996	79.825601000000006
      0.75	84.694101000000003
      0.80000000000000004	90.039004000000006
      0.84999999999999998	95.965085000000002
      0.90000000000000002	102.60559499999999
      0.94999999999999996	110.135639
      1	118.793308
      1.05	128.91455500000001
      1.1000000000000001	140.99328499999999
      1.1499999999999999	155.78958700000001
      1.2	174.53384
      1.25	199.32994600000001
      1.3	233.989035
      1.3500000000000001	285.82186100000001
      1.3999999999999999	369.57162599999998
      1.45	515.788276
      1.5	785.78510400000005
      1.55	1282.7937979999999
      1.6000000000000001	2108.172454
      1.6499999999999999	3257.880122
      1.7	4726.4426309999999
      1.75	6512.0094010000003
      1.8	8720.2655529999993
      1.8500000000000001	11459.429228999999
      1.8999999999999999	14887.904936999999
      1.95	19350.577347999999
      2	26042.602019000002
      2.0499999999999998	39200.400310999998
      2.1000000000000001	65518.130312000001
      2.1499999999999999	100476.654669
      2.2000000000000002	136976.920182
      2.25	176029.81784199999
      2.2999999999999998	215228.81031199999
  <EndBlock>
[CircuitProps]  = 0
[NumPoints] = 196
23.5	-2	0	0
26.5	-2	0	0
26.5	2	0	0
23.5	2	0	0
25.079396306455269	8.7905563477949364	0	0
22.181618827588064	8.0140992124873751	0	0
23.216895007998144	4.1503959073311023	0	0
26.114672486865349	4.9268530426386636	0	0
21.351596988934311	10.017949192431121	0	0
23.949673200287627	11.517949192431121	0	0
21.949673200287627	14.982050807568875	0	0
19.351596988934311	13.482050807568875	0	0
17.324116139070416	20.152543263816607	0	0
15.20279579551077	18.031222920256962	0	0
18.031222920256962	15.20279579551077	0	0
20.152543263816607	17.324116139070416	0	0
13.48205080756888	19.351596988934308	0	0
14.98205080756888	21.949673200287624	0	0
11.517949192431127	23.949673200287624	0	0
10.017949192431127	21.351596988934308	0	0
4.9268530426386627	26.114672486865349	0	0
4.1503959073311014	23.216895007998144	0	0
8.0140992124873751	22.181618827588064	0	0
8.7905563477949364	25.079396306455269	0	0
2.0000000000000013	23.5	0	0
2.0000000000000018	26.5	0	0
-1.9999999999999984	26.5	0	0
-1.9999999999999987	23.5	0	0
-8.79055634779494	25.079396306455266	0	0
-8.0140992124873769	22.181618827588061	0	0
-4.1503959073311032	23.216895007998147	0	0
-4.9268530426386663	26.114672486865352	0	0
-10.017949192431118	21.351596988934311	0	0
-11.517949192431118	23.949673200287627	0	0
-14.982050807568871	21.949673200287627	0	0
-13.482050807568871	19.351596988934311	0	0
-20.1525432638166	17.324116139070416	0	0
-18.031222920256962	15.202795795510772	0	0
-15.20279579551077	18.031222920256962	0	0
-17.324116139070409	20.152543263816607	0	0
-19.351596988934311	13.482050807568875	0	0
-21.949673200287627	14.982050807568875	0	0
-23.949673200287627	11.517949192431121	0	0
-21.351596988934311	10.017949192431121	0	0
-26.114672486865349	4.9268530426386699	0	0
-23.216895007998144	4.1503959073311085	0	0
-22.181618827588064	8.0140992124873804	0	0
-25.079396306455269	8.7905563477949418	0	0
-23.5	2.0000000000000027	0	0
-26.5	2.0000000000000031	0	0
-26.5	-1.9999999999999967	0	0
-23.5	-1.9999999999999971	0	0
-25.079396306455273	-8.7905563477949258	0	0
-22.181618827588068	-8.0140992124873645	0	0
-23.216895007998147	-4.1503959073310916	0	0
-26.114672486865352	-4.926853042638653	0	0
-21.351596988934308	-10.017949192431127	0	0
-23.949673200287624	-11.517949192431127	0	0
-21.949673200287624	-14.98205080756888	0	0
-19.351596988934308	-13.48205080756888	0	0
-17.324116139070423	-20.1525432638166	0	0
-15.202795795510776	-18.031222920256962	0	0
-18.031222920256962	-15.20279579551077	0	0
-20.152543263816607	-17.324116139070409	0	0
-13.482050807568887	-19.351596988934304	0	0
-14.982050807568887	-21.94967320028762	0	0
-11.517949192431134	-23.94967320028762	0	0
-10.017949192431134	-21.351596988934304	0	0
-4.926853042638661	-26.114672486865352	0	0
-4.1503959073310979	-23.216895007998147	0	0
-8.0140992124873716	-22.181618827588061	0	0
-8.7905563477949347	-25.079396306455266	0	0
-2.0000000000000044	-23.5	0	0
-2.0000000000000049	-26.5	0	0
1.9999999999999951	-26.5	0	0
1.9999999999999958	-23.5	0	0
8.7905563477949453	-25.079396306455269	0	0
8.014099212487384	-22.181618827588064	0	0
4.1503959073311112	-23.216895007998144	0	0
4.9268530426386725	-26.114672486865349	0	0
10.017949192431127	-21.351596988934308	0	0
11.517949192431127	-23.949673200287624	0	0
14.98205080756888	-21.949673200287624	0	0
13.48205080756888	-19.351596988934308	0	0
20.152543263816604	-17.324116139070416	0	0
18.031222920256958	-15.202795795510777	0	0
15.202795795510768	-18.031222920256969	0	0
17.324116139070412	-20.152543263816607	0	0
19.3515969889343	-13.482050807568887	0	0
21.949673200287616	-14.982050807568887	0	0
23.949673200287616	-11.517949192431134	0	0
21.3515969889343	-10.017949192431134	0	0
26.114672486865352	-4.926853042638661	0	0
23.216895007998147	-4.1503959073310979	0	0
22.181618827588061	-8.0140992124873716	0	0
25.079396306455266	-8.7905563477949347	0	0
18.5	-2	0	0
21.5	-2	0	0
21.5	2	0	0
18.5	2	0	0
19.098043084262486	10.075452860872003	0	0
16.326404486728627	8.9274025637767362	0	0
17.857138216188986	5.2318844337315884	0	0
20.628776813722844	6.3799347308268555	0	0
14.495689014324226	11.667261889578034	0	0
16.617009357883866	13.788582233137676	0	0
13.788582233137676	16.617009357883866	0	0
11.667261889578034	14.495689014324226	0	0
6.3799347308268572	20.628776813722844	0	0
5.2318844337315893	17.857138216188986	0	0
8.9274025637767362	16.326404486728627	0	0
10.075452860872005	19.098043084262486	0	0
2.0000000000000013	18.5	0	0
2.0000000000000013	21.5	0	0
-1.9999999999999987	21.5	0	0
-1.9999999999999989	18.5	0	0
-10.075452860872003	19.098043084262486	0	0
-8.9274025637767327	16.326404486728627	0	0
-5.2318844337315857	17.857138216188986	0	0
-6.3799347308268564	20.628776813722844	0	0
-11.667261889578032	14.495689014324224	0	0
-13.788582233137674	16.617009357883866	0	0
-16.617009357883866	13.788582233137678	0	0
-14.495689014324224	11.667261889578036	0	0
-20.628776813722844	6.3799347308268572	0	0
-17.857138216188986	5.2318844337315893	0	0
-16.326404486728627	8.9274025637767362	0	0
-19.098043084262486	10.075452860872005	0	0
-18.5	2.0000000000000022	0	0
-21.5	2.0000000000000027	0	0
-21.5	-1.9999999999999973	0	0
-18.5	-1.9999999999999978	0	0
-19.098043084262489	-10.075452860871994	0	0
-16.326404486728631	-8.9274025637767256	0	0
-17.857138216188989	-5.2318844337315769	0	0
-20.628776813722848	-6.3799347308268448	0	0
-14.495689014324229	-11.667261889578032	0	0
-16.617009357883873	-13.788582233137674	0	0
-13.788582233137681	-16.617009357883866	0	0
-11.66726188957804	-14.495689014324224	0	0
-6.3799347308268519	-20.628776813722844	0	0
-5.2318844337315822	-17.857138216188986	0	0
-8.9274025637767291	-16.326404486728627	0	0
-10.075452860872	-19.098043084262486	0	0
-2.0000000000000036	-18.5	0	0
-2.000000000000004	-21.5	0	0
1.999999999999996	-21.5	0	0
1.9999999999999967	-18.5	0	0
10.075452860872009	-19.098043084262489	0	0
8.9274025637767433	-16.326404486728627	0	0
5.2318844337315937	-17.857138216188979	0	0
6.3799347308268581	-20.62877681372284	0	0
11.667261889578031	-14.495689014324228	0	0
13.788582233137673	-16.61700935788387	0	0
16.617009357883862	-13.788582233137681	0	0
14.495689014324222	-11.66726188957804	0	0
20.628776813722848	-6.3799347308268537	0	0
17.857138216188989	-5.2318844337315813	0	0
16.326404486728627	-8.9274025637767274	0	0
19.098043084262486	-10.075452860872	0	0
13.5	-2	0	0
16.5	-2	0	0
16.5	2	0	0
13.5	2	0	0
10.25304832720494	13.08147545195113	0	0
8.1317279836452983	10.960155108391488	0	0
10.960155108391486	8.1317279836452965	0	0
13.081475451951128	10.253048327204938	0	0
2.0000000000000009	13.5	0	0
2.0000000000000009	16.5	0	0
-1.9999999999999989	16.5	0	0
-1.9999999999999991	13.5	0	0
-13.081475451951128	10.25304832720494	0	0
-10.960155108391486	8.1317279836452983	0	0
-8.1317279836452947	10.960155108391486	0	0
-10.253048327204937	13.081475451951128	0	0
-13.5	2.0000000000000018	0	0
-16.5	2.0000000000000022	0	0
-16.5	-1.999999999999998	0	0
-13.5	-1.9999999999999984	0	0
-10.253048327204944	-13.081475451951128	0	0
-8.1317279836452983	-10.960155108391486	0	0
-10.960155108391486	-8.1317279836452947	0	0
-13.081475451951132	-10.253048327204937	0	0
-2.0000000000000027	-13.5	0	0
-2.0000000000000031	-16.5	0	0
1.9999999999999969	-16.5	0	0
1.9999999999999976	-13.5	0	0
13.081475451951126	-10.25304832720494	0	0
10.960155108391481	-8.1317279836452983	0	0
8.1317279836452929	-10.96015510839149	0	0
10.253048327204938	-13.081475451951132	0	0
-31.5	-31.5	0	0
31.5	-31.5	0	0
31.5	31.5	0	0
-31.5	31.5	0	0
[NumSegments] = 196
0	1	-1	0	0	0
1	2	-1	0	0	0
2	3	-1	0	0	0
3	0	-1	0	0	0
4	5	-1	0	0	0
5	6	-1	0	0	0
6	7	-1	0	0	0
7	4	-1	0	0	0
8	9	-1	0	0	0
9	10	-1	0	0	0
10	11	-1	0	0	0
11	8	-1	0	0	0
12	13	-1	0	0	0
13	14	-1	0	0	0
14	15	-1	0	0	0
15	12	-1	0	0	0
16	17	-1	0	0	0
17	18	-1	0	0	0
18	19	-1	0	0	0
19	16	-1	0	0	0
20	21	-1	0	0	0
21	22	-1	0	0	0
22	23	-1	0	0	0
23	20	-1	0	0	0
24	25	-1	0	0	0
25	26	-1	0	0	0
26	27	-1	0	0	0
27	24	-1	0	0	0
28	29	-1	0	0	0
29	30	-1	0	0	0
30	31	-1	0	0	0
31	28	-1	0	0	0
32	33	-1	0	0	0
33	34	-1	0	0	0
34	35	-1	0	0	0
35	32	-1	0	0	0
36	37	-1	0	0	0
37	38	-1	0	0	0
38	39	-1	0	0	0
39	36	-1	0	0	0
40	41	-1	0	0	0
41	42	-1	0	0	0
42	43	-1	0	0	0
43	40	-1	0	0	0
44	45	-1	0	0	0
45	46	-1	0	0	0
46	47	-1	0	0	0
47	44	-1	0	0	0
48	49	-1	0	0	0
49	50	-1	0	0	0
50	51	-1	0	0	0
51	48	-1	0	0	0
52	53	-1	0	0	0
53	54	-1	0	0	0
54	55	-1	0	0	0
55	52	-1	0	0	0
56	57	-1	0	0	0
57	58	-1	0	0	0
58	59	-1	0	0	0
59	56	-1	0	0	0
60	61	-1	0	0	0
61	62	-1	0	0	0
62	63	-1	0	0	0
63	60	-1	0	0	0
64	65	-1	0	0	0
65	66	-1	0	0	0
66	67	-1	0	0	0
67	64	-1	0	0	0
68	69	-1	0	0	0
69	70	-1	0	0	0
70	71	-1	0	0	0
71	68	-1	0	0	0
72	73	-1	0	0	0
73	74	-1	0	0	0
74	75	-1	0	0	0
75	72	-1	0	0	0
76	77	-1	0	0	0
77	78	-1	0	0	0
78	79	-1	0	0	0
79	76	-1	0	0	0
80	81	-1	0	0	0
81	82	-1	0	0	0
82	83	-1	0	0	0
83	80	-1	0	0	0
84	85	-1	0	0	0
85	86	-1	0	0	0
86	87	-1	0	0	0
87	84	-1	0	0	0
88	89	-1	0	0	0
89	90	-1	0	0	0
90	91	-1	0	0	0
91	88	-1	0	0	0
92	93	-1	0	0	0
93	94	-1	0	0	0
94	95	-1	0	0	0
95	92	-1	0	0	0
96	97	-1	0	0	0
97	98	-1	0	0	0
98	99	-1	0	0	0
99	96	-1	0	0	0
100	101	-1	0	0	0
101	102	-1	0	0	0
102	103	-1	0	0	0
103	100	-1	0	0	0
104	105	-1	0	0	0
105	106	-1	0	0	0
106	107	-1	0	0	0
107	104	-1	0	0	0
108	109	-1	0	0	0
109	110	-1	0	0	0
110	111	-1	0	0	0
111	108	-1	0	0	0
112	113	-1	0	0	0
113	114	-1	0	0	0
114	115	-1	0	0	0
115	112	-1	0	0	0
116	117	-1	0	0	0
117	118	-1	0	0	0
118	119	-1	0	0	0
119	116	-1	0	0	0
120	121	-1	0	0	0
121	122	-1	0	0	0
122	123	-1	0	0	0
123	120	-1	0	0	0
124	125	-1	0	0	0
125	126	-1	0	0	0
126	127	-1	0	0	0
127	124	-1	0	0	0
128	129	-1	0	0	0
129	130	-1	0	0	0
130	131	-1	0	0	0
131	128	-1	0	0	0
132	133	-1	0	0	0
133	134	-1	0	0	0
134	135	-1	0	0	0
135	132	-1	0	0	0
136	137	-1	0	0	0
137	138	-1	0	0	0
138	139	-1	0	0	0
139	136	-1	0	0	0
140	141	-1	0	0	0
141	142	-1	0	0	0
142	143	-1	0	0	0
143	140	-1	0	0	0
144	145	-1	0	0	0
145	146	-1	0	0	0
146	147	-1	0	0	0
147	144	-1	0	0	0
148	149	-1	0	0	0
149	150	-1	0	0	0
150	151	-1	0	0	0
151	148	-1	0	0	0
152	153	-1	0	0	0
153	154	-1	0	0	0
154	155	-1	0	0	0
155	152	-1	0	0	0
156	157	-1	0	0	0
157	158	-1	0	0	0
158	159	-1	0	0	0
159	156	-1	0	0	0
160	161	-1	0	0	0
161	162	-1	0	0	0
162	163	-1	0	0	0
163	160	-1	0	0	0
164	165	-1	0	0	0
165	166	-1	0	0	0
166	167	-1	0	0	0
167	164	-1	0	0	0
168	169	-1	0	0	0
169	170	-1	0	0	0
170	171	-1	0	0	0
171	168	-1	0	0	0
172	173	-1	0	0	0
173	174	-1	0	0	0
174	175	-1	0	0	0
175	172	-1	0	0	0
176	177	-1	0	0	0
177	178	-1	0	0	0
178	179	-1	0	0	0
179	176	-1	0	0	0
180	181	-1	0	0	0
181	182	-1	0	0	0
182	183	-1	0	0	0
183	180	-1	0	0	0
184	185	-1	0	0	0
185	186	-1	0	0	0
186	187	-1	0	0	0
187	184	-1	0	0	0
188	189	-1	0	0	0
189	190	-1	0	0	0
190	191	-1	0	0	0
191	188	-1	0	0	0
192	195	-1	0	0	0
193	192	-1	1	0	0
194	193	-1	1	0	0
195	194	-1	0	0	0
[NumArcSegments] = 0
[NumHoles] = 0
[NumBlockLabels] = 49
25	0	2	-1	0	0	0	1	0
24.148145657226706	6.4704761275630185	2	-1	0	195	0	1	0
21.650635094610969	12.499999999999998	2	-1	0	30	0	1	0
17.677669529663689	17.677669529663689	2	-1	0	225	0	1	0
12.500000000000004	21.650635094610966	2	-1	0	60	0	1	0
6.4704761275630185	24.148145657226706	2	-1	0	255	0	1	0
1.5308084989341915e-015	25	2	-1	0	90	0	1	0
-6.4704761275630212	24.148145657226706	2	-1	0	285	0	1	0
-12.499999999999995	21.650635094610969	2	-1	0	120	0	1	0
-17.677669529663685	17.677669529663689	2	-1	0	315	0	1	0
-21.650635094610969	12.499999999999998	2	-1	0	150	0	1	0
-24.148145657226706	6.4704761275630256	2	-1	0	345	0	1	0
-25	3.061616997868383e-015	2	-1	0	180	0	1	0
-24.14814565722671	-6.4704761275630087	2	-1	0	375	0	1	0
-21.650635094610966	-12.500000000000004	2	-1	0	210	0	1	0
-17.677669529663692	-17.677669529663685	2	-1	0	405	0	1	0
-12.500000000000011	-21.650635094610962	2	-1	0	240	0	1	0
-6.4704761275630158	-24.148145657226706	2	-1	0	435	0	1	0
-4.5924254968025744e-015	-25	2	-1	0	270	0	1	0
6.4704761275630283	-24.148145657226706	2	-1	0	465	0	1	0
12.500000000000004	-21.650635094610966	2	-1	0	300	0	1	0
17.677669529663685	-17.677669529663692	2	-1	0	495	0	1	0
21.650635094610958	-12.500000000000011	2	-1	0	330	0	1	0
24.148145657226706	-6.4704761275630167	2	-1	0	525	0	1	0
20	0	3	-1	0	0	0	1	0
18.477590650225736	7.6536686473017959	3	-1	0	202.5	0	1	0
14.142135623730951	14.142135623730951	3	-1	0	45	0	1	0
7.6536686473017967	18.477590650225736	3	-1	0	247.5	0	1	0
1.2246467991473533e-015	20	3	-1	0	90	0	1	0
-7.6536686473017941	18.477590650225736	3	-1	0	292.5	0	1	0
-14.142135623730949	14.142135623730951	3	-1	0	135	0	1	0
-18.477590650225736	7.6536686473017976	3	-1	0	337.5	0	1	0
-20	2.4492935982947065e-015	3	-1	0	180	0	1	0
-18.477590650225739	-7.6536686473017843	3	-1	0	382.5	0	1	0
-14.142135623730955	-14.142135623730949	3	-1	0	225	0	1	0
-7.6536686473017905	-18.477590650225736	3	-1	0	427.5	0	1	0
-3.6739403974420592e-015	-20	3	-1	0	270	0	1	0
7.6536686473018003	-18.477590650225732	3	-1	0	472.5	0	1	0
14.142135623730947	-14.142135623730955	3	-1	0	315	0	1	0
18.477590650225736	-7.6536686473017914	3	-1	0	517.5	0	1	0
15	0	2	-1	0	0	0	1	0
10.606601717798213	10.606601717798213	2	-1	0	225	0	1	0
9.1848509936051499e-016	15	2	-1	0	90	0	1	0
-10.606601717798211	10.606601717798213	2	-1	0	315	0	1	0
-15	1.83697019872103e-015	2	-1	0	180	0	1	0
-10.606601717798215	-10.606601717798211	2	-1	0	405	0	1	0
-2.7554552980815444e-015	-15	2	-1	0	270	0	1	0
10.60660171779821	-10.606601717798215	2	-1	0	495	0	1	0
-31	-31	1	-1	0	0	0	1	0
